VoxBridge Output Package
==============================

Input file: 4_cubes.glb
Output file: 4_cubes.glb
Target platform: roblox
Generated: 2025-08-15 19:49:57

Files included:
- 4_cubes.glb (main model file)
- metadata.json
- stylized_anime_female_head.zip
- license.txt
- 4_cubes.bin
- 4_cubes_roblox_package.zip
- man_sitting_roblox.gltf
- man_sitting_roblox_roblox_package.zip
- 4_cubes.gltf
- man_sitting_roblox.glb

Usage:
- Import into Roblox using MeshPart importer
- Verify texture sizes are within 1024x1024 limits
- Check material compatibility with Roblox shaders

For more information, visit: https://github.com/Supercoolkayy/voxbridge
