VoxBridge Output Package
==============================

Input file: man_sitting.glb
Output file: man_sitting_roblox.glb
Target platform: roblox
Generated: 2025-08-15 19:18:02

Files included:
- man_sitting_roblox.glb (main model file)
- metadata.json
- stylized_anime_female_head.zip
- license.txt
- 4_cubes.bin
- man_sitting_roblox.gltf
- man_sitting_roblox_roblox_package.zip
- scene.bin
- 4_cubes_roblox.gltf
- man_sitting.bin

Usage:
- Import into Roblox using MeshPart importer
- Verify texture sizes are within 1024x1024 limits
- Check material compatibility with Roblox shaders

For more information, visit: https://github.com/Supercoolkayy/voxbridge
